powerfulcases/cases/synthetic/ACTIVSg25k/ACTIVSg25k.raw
0, 100, 33, 0, 0, 60  / 28-Jan-2026 21:53:52 - MATPOWER 8.1


 11001, 'NEWBERRY 1  ',       138, 1,   11,    1, 1,   1.0093286,   -10.64429,  1.1,  0.9,  1.1,  0.9
 11002, 'NEWBERRY 2  ',        69, 1,   11,    1, 1,       1.021,  -11.065497,  1.1,  0.9,  1.1,  0.9
 11003, 'NEWBERRY 3  ',        18, 1,   11,    1, 1,   1.0305105,   -11.40026,  1.1,  0.9,  1.1,  0.9
 11004, 'NEWBERRY 4  ',         1, 1,   11,    1, 1,   1.0305105,   -11.40026,  1.1,  0.9,  1.1,  0.9
 11005, 'NEWBERRY 5  ',       138, 1,   11,    1, 1,   1.0090749,  -10.676469,  1.1,  0.9,  1.1,  0.9
 11006, 'NEWBERRY 7  ',       138, 1,   11,    1, 1,   1.0094988,  -10.611985,  1.1,  0.9,  1.1,  0.9
 11007, 'POMARIA 1   ',        69, 1,   11,    1, 1,    1.041786,  -12.380243,  1.1,  0.9,  1.1,  0.9
 11008, 'POMARIA 2   ',        69, 1,   11,    1, 1,   1.0417576,  -12.383547,  1.1,  0.9,  1.1,  0.9
 11009, 'WHITMIRE 1  ',        69, 1,   11,    1, 1,   1.0321049,  -13.218888,  1.1,  0.9,  1.1,  0.9
 11010, 'WHITMIRE 2  ',        69, 1,   11,    1, 1,   1.0321688,  -13.211572,  1.1,  0.9,  1.1,  0.9
 11011, 'SPARTANBURG ',        69, 1,   11,    1, 1,   1.0290761,  -14.224554,  1.1,  0.9,  1.1,  0.9
 11012, 'SPARTANBURG ',        69, 1,   11,    1, 1,    1.028928,  -14.248439,  1.1,  0.9,  1.1,  0.9
 11013, 'SPARTANBURG ',        69, 1,   11,    1, 1,   1.0289243,  -14.195507,  1.1,  0.9,  1.1,  0.9
 11014, 'SPARTANBURG ',        69, 1,   11,    1, 1,   1.0290761,  -14.224554,  1.1,  0.9,  1.1,  0.9
 11015, 'SPARTANBURG ',        69, 1,   11,    1, 1,   1.0290761,  -14.224554,  1.1,  0.9,  1.1,  0.9
 11016, 'SPARTANBURG ',       138, 1,   11,    1, 1,   1.0079849,   -9.763669,  1.1,  0.9,  1.1,  0.9
 11017, 'SPARTANBURG ',        69, 1,   11,    1, 1,   1.0325083,  -12.736027,  1.1,  0.9,  1.1,  0.9
 11018, 'SPARTANBURG ',       138, 1,   11,    1, 1,   1.0077504,   -9.789545,  1.1,  0.9,  1.1,  0.9
 11019, 'SPARTANBURG ',       138, 1,   11,    1, 1,   1.0187041,    -9.78556,  1.1,  0.9,  1.1,  0.9
 11020, 'SPARTANBURG ',       138, 1,   11,    1, 1,   1.0182263,    -9.80962,  1.1,  0.9,  1.1,  0.9
 11021, 'SPARTANBURG ',        69, 1,   11,    1, 1,   1.0327735,  -14.338199,  1.1,  0.9,  1.1,  0.9
 11022, 'SPARTANBURG ',        69, 1,   11,    1, 1,   1.0325367,  -14.355813,  1.1,  0.9,  1.1,  0.9
 11023, 'SPARTANBURG ',        69, 1,   11,    1, 1,   1.0208186,  -13.279804,  1.1,  0.9,  1.1,  0.9
 11024, 'SPARTANBURG ',        69, 1,   11,    1, 1,   1.0279093,  -13.595502,  1.1,  0.9,  1.1,  0.9
 11025, 'SPARTANBURG ',        69, 1,   11,    1, 1,    1.028069,  -13.570138,  1.1,  0.9,  1.1,  0.9
 11026, 'SPARTANBURG ',        69, 1,   11,    1, 1,   1.0277348,  -13.621917,  1.1,  0.9,  1.1,  0.9
 11027, 'SPARTANBURG ',       138, 1,   11,    1, 1,   1.0193596,   -9.594402,  1.1,  0.9,  1.1,  0.9
 11028, 'SPARTANBURG ',        69, 1,   11,    1, 1,   1.0358851,  -13.749288,  1.1,  0.9,  1.1,  0.9
 11029, 'SPARTANBURG ',       138, 1,   11,    1, 1,   1.0191269,   -9.622411,  1.1,  0.9,  1.1,  0.9
 11030, 'BOILING SPRI',       345, 1,   11,    1, 1,   1.0338368,   -7.831472,  1.1,  0.9,  1.1,  0.9
 11031, 'BOILING SPRI',       138, 1,   11,    1, 1,   1.0248497,   -9.819382,  1.1,  0.9,  1.1,  0.9
 11032, 'BOILING SPRI',        24, 1,   11,    1, 1,   1.0190151,  -11.309048,  1.1,  0.9,  1.1,  0.9
 11033, 'BOILING SPRI',         1, 1,   11,    1, 1,   1.0190151,  -11.309048,  1.1,  0.9,  1.1,  0.9
 11034, 'BOILING SPRI',       345, 1,   11,    1, 1,   1.0345364,   -7.751599,  1.1,  0.9,  1.1,  0.9
 11035, 'BOILING SPRI',       345, 1,   11,    1, 1,   1.0338368,   -7.831472,  1.1,  0.9,  1.1,  0.9
 11036, 'CAMPOBELLO 1',        69, 1,   11,    1, 1,   1.0297764,  -13.924803,  1.1,  0.9,  1.1,  0.9
 11037, 'CHESNEE 1 1 ',        69, 1,   11,    1, 1,   1.0335145,   -15.32318,  1.1,  0.9,  1.1,  0.9
 11038, 'CHESNEE 1 2 ',        69, 1,   11,    1, 1,   1.0332637,  -15.344291,  1.1,  0.9,  1.1,  0.9
 11039, 'CLINTON 12 1',       138, 1,   11,    1, 1,   1.0178119,   -8.814059,  1.1,  0.9,  1.1,  0.9
 11040, 'COWPENS 1   ',        69, 1,   11,    1, 1,    1.033529,  -14.409894,  1.1,  0.9,  1.1,  0.9
 11041, 'DUNCAN 1    ',        69, 1,   11,    1, 1,   1.0188871,  -12.658317,  1.1,  0.9,  1.1,  0.9
 11042, 'DUNCAN 2    ',        69, 1,   11,    1, 1,   1.0187891,  -12.675247,  1.1,  0.9,  1.1,  0.9
 11043, 'ENOREE 1    ',        69, 1,   11,    1, 1,   1.0039923,  -13.380482,  1.1,  0.9,  1.1,  0.9
 11044, 'ENOREE 2    ',        69, 1,   11,    1, 1,   1.0040642,  -13.371028,  1.1,  0.9,  1.1,  0.9
 11045, 'ENOREE 4    ',        69, 1,   11,    1, 1,   1.0039268,  -13.389123,  1.1,  0.9,  1.1,  0.9
 11046, 'ENOREE 6    ',        69, 1,   11,    1, 1,   1.0039923,  -13.380482,  1.1,  0.9,  1.1,  0.9
 11047, 'GAFFNEY 1 1 ',       138, 1,   11,    1, 1,   1.0372164,  -12.741229,  1.1,  0.9,  1.1,  0.9
 11048, 'GAFFNEY 1 2 ',        69, 1,   11,    1, 1,   1.0433782,  -13.745594,  1.1,  0.9,  1.1,  0.9
 11049, 'GAFFNEY 1 3 ',       138, 1,   11,    1, 1,   1.0373942,  -12.737461,  1.1,  0.9,  1.1,  0.9
 11050, 'GAFFNEY 2 1 ',        69, 1,   11,    1, 1,   1.0385034,   -13.61601,  1.1,  0.9,  1.1,  0.9
 11051, 'GAFFNEY 2 2 ',        69, 1,   11,    1, 1,   1.0382306,  -13.642724,  1.1,  0.9,  1.1,  0.9
 11052, 'INMAN 1 1   ',       138, 1,   11,    1, 1,   1.0130115,  -10.592939,  1.1,  0.9,  1.1,  0.9
 11053, 'INMAN 2 1   ',       138, 1,   11,    1, 1,   1.0063804,  -10.574038,  1.1,  0.9,  1.1,  0.9
 11054, 'INMAN 2 2   ',        69, 1,   11,    1, 1,   1.0218803,  -12.419252,  1.1,  0.9,  1.1,  0.9
 11055, 'INMAN 2 3   ',       138, 1,   11,    1, 1,   1.0060898,    -10.5941,  1.1,  0.9,  1.1,  0.9
 11056, 'JONESVILLE 3',        69, 1,   11,    1, 1,   1.0070031,  -14.293627,  1.1,  0.9,  1.1,  0.9
 11057, 'LANDRUM 1   ',        69, 1,   11,    1, 1,   1.0256456,   -13.93634,  1.1,  0.9,  1.1,  0.9
 11058, 'LANDRUM 2   ',        69, 1,   11,    1, 1,   1.0255791,  -13.948319,  1.1,  0.9,  1.1,  0.9
 11059, 'LANDRUM 4   ',        69, 1,   11,    1, 1,   1.0254721,  -13.919817,  1.1,  0.9,  1.1,  0.9
 11060, 'LANDRUM 6   ',        69, 1,   11,    1, 1,   1.0256456,   -13.93634,  1.1,  0.9,  1.1,  0.9
 11061, 'LAURENS 1   ',       345, 1,   11,    1, 1,   1.0309561,   -4.042278,  1.1,  0.9,  1.1,  0.9
 11062, 'LAURENS 2   ',       138, 1,   11,    1, 1,   1.0280604,   -6.389789,  1.1,  0.9,  1.1,  0.9
 11063, 'LAURENS 3   ',        69, 1,   11,    1, 1,   1.0228045,   -9.608123,  1.1,  0.9,  1.1,  0.9
 11064, 'LAURENS 4   ',       345, 1,   11,    1, 1,   1.0306505,   -4.074937,  1.1,  0.9,  1.1,  0.9
 11065, 'LAURENS 6   ',       138, 1,   11,    1, 1,   1.0277983,   -6.454953,  1.1,  0.9,  1.1,  0.9
 11066, 'LYMAN 1     ',        69, 1,   11,    1, 1,   1.0201692,  -12.749843,  1.1,  0.9,  1.1,  0.9
 11067, 'LYMAN 2     ',        69, 1,   11,    1, 1,   1.0199875,  -12.764822,  1.1,  0.9,  1.1,  0.9
 11068, 'MOORE 1     ',        69, 1,   11,    1, 1,    1.018919,  -12.598819,  1.1,  0.9,  1.1,  0.9
 11069, 'MOORE 2     ',        69, 1,   11,    1, 1,   1.0191316,  -12.578639,  1.1,  0.9,  1.1,  0.9
 11070, 'PACOLET 1 1 ',        69, 1,   11,    1, 1,    1.006399,   -14.56706,  1.1,  0.9,  1.1,  0.9
 11071, 'PACOLET 1 2 ',        69, 1,   11,    1, 1,   1.0063351,  -14.573428,  1.1,  0.9,  1.1,  0.9
 11072, 'ROEBUCK 1   ',        69, 1,   11,    1, 1,   1.0151965,  -11.139024,  1.1,  0.9,  1.1,  0.9
 11073, 'ROEBUCK 2   ',        69, 1,   11,    1, 1,   1.0152606,  -11.127978,  1.1,  0.9,  1.1,  0.9
 11074, 'UNION 4 1   ',       138, 1,   11,    1, 1,   1.0235617,  -13.505709,  1.1,  0.9,  1.1,  0.9
 11075, 'UNION 4 2   ',       138, 1,   11,    1, 1,   1.0231798,  -13.538473,  1.1,  0.9,  1.1,  0.9
 11076, 'WELLFORD 1 1',        69, 1,   11,    1, 1,   1.0196018,  -12.330658,  1.1,  0.9,  1.1,  0.9
 11077, 'WELLFORD 1 2',        69, 1,   11,    1, 1,   1.0195316,  -12.341673,  1.1,  0.9,  1.1,  0.9
 11078, 'WOODRUFF 1  ',       138, 1,   11,    1, 1,   1.0076138,    -9.17367,  1.1,  0.9,  1.1,  0.9
 11079, 'WOODRUFF 2  ',        69, 1,   11,    1, 1,   1.0299855,  -10.428734,  1.1,  0.9,  1.1,  0.9
 11080, 'WOODRUFF 3  ',       138, 1,   11,    1, 1,    1.007381,   -9.199459,  1.1,  0.9,  1.1,  0.9
 11081, 'WOODRUFF 5  ',       138, 1,   11,    1, 1,   1.0080251,   -9.140952,  1.1,  0.9,  1.1,  0.9
 11082, 'GREENVILLE 1',        69, 1,   11,    1, 1,   1.0231339,   -9.418213,  1.1,  0.9,  1.1,  0.9
 11083, 'GREENVILLE 1',        69, 1,   11,    1, 1,   1.0230268,   -9.434535,  1.1,  0.9,  1.1,  0.9
 11084, 'GREENVILLE 1',        69, 1,   11,    1, 1,   1.0109697,  -10.205343,  1.1,  0.9,  1.1,  0.9
 11085, 'GREENVILLE 1',       138, 1,   11,    1, 1,   1.0284578,   -5.250251,  1.1,  0.9,  1.1,  0.9
 11086, 'GREENVILLE 1',        69, 1,   11,    1, 1,   1.0203702,   -9.359944,  1.1,  0.9,  1.1,  0.9
 11087, 'GREENVILLE 1',      13.8, 1,   11,    1, 1,   1.0251874,    -6.60801,  1.1,  0.9,  1.1,  0.9
 11088, 'GREENVILLE 1',         1, 1,   11,    1, 1,   1.0251874,    -6.60801,  1.1,  0.9,  1.1,  0.9
 11089, 'GREENVILLE 1',       138, 1,   11,    1, 1,   1.0286494,   -5.221032,  1.1,  0.9,  1.1,  0.9
 11090, 'GREENVILLE 1',        69, 1,   11,    1, 1,   1.0145498,   -9.840847,  1.1,  0.9,  1.1,  0.9
 11091, 'GREENVILLE 1',       345, 1,   11,    1, 1,   1.0347752,   -2.049822,  1.1,  0.9,  1.1,  0.9
 11092, 'GREENVILLE 1',       138, 1,   11,    1, 1,   1.0367815,   -4.824996,  1.1,  0.9,  1.1,  0.9
 11093, 'GREENVILLE 1',        69, 1,   11,    1, 1,    1.035699,   -8.591163,  1.1,  0.9,  1.1,  0.9
 11094, 'GREENVILLE 1',       138, 1,   11,    1, 1,    1.036371,   -4.851741,  1.1,  0.9,  1.1,  0.9
 11095, 'GREENVILLE 2',        69, 1,   11,    1, 1,   1.0202187,   -9.491759,  1.1,  0.9,  1.1,  0.9
 11096, 'GREENVILLE 2',        69, 1,   11,    1, 1,   1.0190644,   -9.218836,  1.1,  0.9,  1.1,  0.9
 11097, 'GREENVILLE 2',        69, 1,   11,    1, 1,   1.0213898,   -9.153647,  1.1,  0.9,  1.1,  0.9
 11098, 'GREENVILLE 2',        69, 1,   11,    1, 1,   1.0236973,   -9.140788,  1.1,  0.9,  1.1,  0.9
 11099, 'GREENVILLE 2',        69, 1,   11,    1, 1,   1.0234304,   -9.162858,  1.1,  0.9,  1.1,  0.9
 11100, 'GREENVILLE 2',        69, 1,   11,    1, 1,   1.0199732,  -10.342084,  1.1,  0.9,  1.1,  0.9
 11101, 'GREENVILLE 2',       138, 1,   11,    1, 1,   1.0335897,   -5.306703,  1.1,  0.9,  1.1,  0.9
 11102, 'GREENVILLE 2',       138, 1,   11,    1, 1,   1.0333812,   -5.330745,  1.1,  0.9,  1.1,  0.9
 11103, 'GREENVILLE 2',       138, 1,   11,    1, 1,   1.0263122,   -4.610861,  1.1,  0.9,  1.1,  0.9
 11104, 'GREENVILLE 2',        69, 1,   11,    1, 1,   1.0314159,   -8.192753,  1.1,  0.9,  1.1,  0.9
 11105, 'GREENVILLE 2',       138, 1,   11,    1, 1,   1.0261433,   -4.629373,  1.1,  0.9,  1.1,  0.9
 11106, 'GREENVILLE 2',       138, 1,   11,    1, 1,   1.0267957,   -4.573415,  1.1,  0.9,  1.1,  0.9
 11107, 'GREENVILLE 2',       138, 1,   11,    1, 1,   1.0262811,   -4.614596,  1.1,  0.9,  1.1,  0.9
 11108, 'GREENVILLE 2',        69, 1,   11,    1, 1,   1.0199745,   -9.431356,  1.1,  0.9,  1.1,  0.9
 11109, 'ABBEVILLE 1 ',       138, 1,   11,    1, 1,   1.0188459,   -3.554738,  1.1,  0.9,  1.1,  0.9
 11110, 'ANDERSON 1 1',       138, 1,   11,    1, 1,   1.0246804,   -2.890366,  1.1,  0.9,  1.1,  0.9
 11111, 'ANDERSON 1 2',        69, 1,   11,    1, 1,   1.0329731,   -5.510303,  1.1,  0.9,  1.1,  0.9
 11112, 'ANDERSON 1 3',       138, 1,   11,    1, 1,   1.0252512,   -2.841572,  1.1,  0.9,  1.1,  0.9
 11113, 'ANDERSON 2 1',       138, 1,   11,    1, 1,   1.0236683,   -3.426879,  1.1,  0.9,  1.1,  0.9
 11114, 'ANDERSON 2 2',        69, 1,   11,    1, 1,   1.0311137,   -4.797399,  1.1,  0.9,  1.1,  0.9
 11115, 'ANDERSON 2 3',       138, 1,   11,    1, 1,   1.0235129,   -3.454248,  1.1,  0.9,  1.1,  0.9
 11116, 'ANDERSON 2 5',       138, 1,   11,    1, 1,   1.0239437,   -3.389808,  1.1,  0.9,  1.1,  0.9
 11117, 'ANDERSON 3 1',       138, 1,   11,    1, 1,   1.0244595,   -1.620086,  1.1,  0.9,  1.1,  0.9
 11118, 'ANDERSON 4 1',       138, 1,   11,    1, 1,   1.0274927,   -0.916211,  1.1,  0.9,  1.1,  0.9
 11119, 'ANDERSON 4 2',       138, 1,   11,    1, 1,   1.0270619,    -0.93655,  1.1,  0.9,  1.1,  0.9
 11120, 'ANDERSON 5 1',        69, 1,   11,    1, 1,   1.0050692,   -6.244818,  1.1,  0.9,  1.1,  0.9
 11121, 'ANDERSON 6 1',        69, 1,   11,    1, 1,   1.0211013,   -4.102212,  1.1,  0.9,  1.1,  0.9
 11122, 'ANDERSON 6 2',        69, 1,   11,    1, 1,   1.0209874,   -4.121301,  1.1,  0.9,  1.1,  0.9
 11123, 'ANDERSON 6 4',        69, 1,   11,    1, 1,   1.0212323,   -4.081889,  1.1,  0.9,  1.1,  0.9
 11124, 'BELTON 1    ',        69, 1,   11,    1, 1,   1.0288924,   -5.859135,  1.1,  0.9,  1.1,  0.9
 11125, 'BELTON 2    ',        69, 1,   11,    1, 1,   1.0286899,   -5.887549,  1.1,  0.9,  1.1,  0.9
 11126, 'CALHOUN FALL',        69, 1,   11,    1, 1,    1.008779,   -8.269404,  1.1,  0.9,  1.1,  0.9
 11127, 'CALHOUN FALL',        69, 1,   11,    1, 1,   1.0087405,   -8.274057,  1.1,  0.9,  1.1,  0.9
 11128, 'CENTRAL 1   ',        69, 1,   11,    1, 1,   0.9969057,   -7.751016,  1.1,  0.9,  1.1,  0.9
 11129, 'CLEMSON 1 1 ',       138, 1,   11,    1, 1,   1.0298177,   -2.410173,  1.1,  0.9,  1.1,  0.9
 11130, 'CLEMSON 2 1 ',        69, 1,   11,    1, 1,   1.0035692,   -7.263243,  1.1,  0.9,  1.1,  0.9
 11131, 'CLEMSON 2 2 ',        69, 1,   11,    1, 1,   1.0034961,   -7.271371,  1.1,  0.9,  1.1,  0.9
 11132, 'DONALDS 1   ',        69, 1,   11,    1, 1,   1.0209653,    -5.82506,  1.1,  0.9,  1.1,  0.9
 11133, 'DONALDS 2   ',        69, 1,   11,    1, 1,   1.0209208,   -5.829453,  1.1,  0.9,  1.1,  0.9
 11134, 'EASLEY 1 1  ',        69, 1,   11,    1, 1,   1.0291473,   -7.215593,  1.1,  0.9,  1.1,  0.9
 11135, 'EASLEY 1 2  ',        69, 1,   11,    1, 1,   1.0293177,   -7.192281,  1.1,  0.9,  1.1,  0.9
 11136, 'EASLEY 2 1  ',       138, 1,   11,    1, 1,   1.0293861,   -2.917687,  1.1,  0.9,  1.1,  0.9
 11137, 'EASLEY 2 2  ',        69, 1,   11,    1, 1,   1.0315448,   -6.822126,  1.1,  0.9,  1.1,  0.9
 11138, 'EASLEY 2 3  ',        18, 1,   11,    1, 1,   1.0408022,  -11.605904,  1.1,  0.9,  1.1,  0.9
 11139, 'EASLEY 2 4  ',         1, 1,   11,    1, 1,   1.0408022,  -11.605904,  1.1,  0.9,  1.1,  0.9
 11140, 'EASLEY 2 5  ',       138, 1,   11,    1, 1,   1.0292509,   -2.939215,  1.1,  0.9,  1.1,  0.9
 11141, 'EASLEY 3 1  ',        69, 1,   11,    1, 1,   1.0189279,   -8.839658,  1.1,  0.9,  1.1,  0.9
 11142, 'EASLEY 4 1  ',       138, 1,   11,    1, 1,   1.0267166,   -4.217437,  1.1,  0.9,  1.1,  0.9
 11143, 'EASLEY 4 2  ',        69, 1,   11,    1, 1,   1.0248525,   -8.243337,  1.1,  0.9,  1.1,  0.9
 11144, 'EASLEY 4 3  ',      13.2, 1,   11,    1, 1,   1.0310928,  -14.040347,  1.1,  0.9,  1.1,  0.9
 11145, 'EASLEY 4 4  ',         1, 1,   11,    1, 1,   1.0310928,  -14.040347,  1.1,  0.9,  1.1,  0.9
 11146, 'EASLEY 4 5  ',       138, 1,   11,    1, 1,   1.0270246,    -4.17333,  1.1,  0.9,  1.1,  0.9
 11147, 'EASLEY 4 7  ',       138, 1,   11,    1, 1,   1.0265133,   -4.240921,  1.1,  0.9,  1.1,  0.9
 11148, 'FAIR PLAY 1 ',        69, 1,   11,    1, 1,   0.9981935,   -7.414332,  1.1,  0.9,  1.1,  0.9
 11149, 'FOUNTAIN INN',       138, 1,   11,    1, 1,   1.0271534,    -6.45102,  1.1,  0.9,  1.1,  0.9
 11150, 'GRAY COURT 1',        69, 1,   11,    1, 1,   1.0077535,  -11.849782,  1.1,  0.9,  1.1,  0.9
 11151, 'GREENWOOD 2 ',       138, 1,   11,    1, 1,   1.0192962,    -6.81146,  1.1,  0.9,  1.1,  0.9
 11152, 'GREENWOOD 2 ',        69, 1,   11,    1, 1,   1.0312771,    -9.58516,  1.1,  0.9,  1.1,  0.9
 11153, 'GREENWOOD 2 ',       138, 1,   11,    1, 1,    1.019138,   -6.832089,  1.1,  0.9,  1.1,  0.9
 11154, 'GREENWOOD 3 ',        69, 1,   11,    1, 1,   1.0235114,   -10.66469,  1.1,  0.9,  1.1,  0.9
 11155, 'GREENWOOD 3 ',        69, 1,   11,    1, 1,   1.0234143,  -10.685745,  1.1,  0.9,  1.1,  0.9
 11156, 'GREENWOOD 3 ',        69, 1,   11,    1, 1,   1.0236146,  -10.643334,  1.1,  0.9,  1.1,  0.9
 11157, 'GREENWOOD 3 ',        69, 1,   11,    1, 1,   1.0235114,   -10.66469,  1.1,  0.9,  1.1,  0.9
 11158, 'GREENWOOD 4 ',       345, 1,   11,    1, 1,   1.0293257,   -4.937603,  1.1,  0.9,  1.1,  0.9
 11159, 'GREENWOOD 4 ',       138, 1,   11,    1, 1,   1.0352783,   -6.491064,  1.1,  0.9,  1.1,  0.9
 11160, 'GREENWOOD 4 ',        69, 1,   11,    1, 1,   1.0381698,   -7.313145,  1.1,  0.9,  1.1,  0.9
 11161, 'GREENWOOD 4 ',       138, 1,   11,    1, 1,   1.0350717,   -6.514897,  1.1,  0.9,  1.1,  0.9
 11162, 'GREENWOOD 5 ',       138, 1,   11,    1, 1,   1.0284896,   -7.241911,  1.1,  0.9,  1.1,  0.9
 11163, 'GREENWOOD 5 ',        69, 1,   11,    1, 1,   1.0332429,   -7.177228,  1.1,  0.9,  1.1,  0.9
 11164, 'GREENWOOD 5 ',       138, 1,   11,    1, 1,   1.0283623,   -7.260716,  1.1,  0.9,  1.1,  0.9
 11165, 'GREER 1 1   ',        69, 1,   11,    1, 1,   1.0220161,  -10.732525,  1.1,  0.9,  1.1,  0.9
 11166, 'GREER 1 2   ',        69, 1,   11,    1, 1,   1.0217353,   -10.75432,  1.1,  0.9,  1.1,  0.9
 11167, 'GREER 1 4   ',        69, 1,   11,    1, 1,   1.0223131,  -10.709134,  1.1,  0.9,  1.1,  0.9
 11168, 'GREER 2 1   ',       138, 1,   11,    1, 1,   1.0246913,   -7.241513,  1.1,  0.9,  1.1,  0.9
 11169, 'GREER 2 2   ',        69, 1,   11,    1, 1,   1.0240718,  -10.366368,  1.1,  0.9,  1.1,  0.9
 11170, 'GREER 2 3   ',        20, 1,   11,    1, 1,   1.0239409,   -9.582433,  1.1,  0.9,  1.1,  0.9
 11171, 'GREER 2 4   ',         1, 1,   11,    1, 1,   1.0239409,   -9.582433,  1.1,  0.9,  1.1,  0.9
 11172, 'GREER 2 5   ',       138, 1,   11,    1, 1,     1.02444,    -7.26737,  1.1,  0.9,  1.1,  0.9
 11173, 'GREER 3 1   ',       138, 1,   11,    1, 1,   1.0240415,   -6.754964,  1.1,  0.9,  1.1,  0.9
 11174, 'GREER 4 1   ',       345, 1,   11,    1, 1,    1.026258,   -4.140243,  1.1,  0.9,  1.1,  0.9
 11175, 'GREER 4 2   ',       138, 1,   11,    1, 1,   1.0327057,   -5.763518,  1.1,  0.9,  1.1,  0.9
 11176, 'GREER 4 3   ',        69, 1,   11,    1, 1,   1.0362538,   -8.648153,  1.1,  0.9,  1.1,  0.9
 11177, 'GREER 4 4   ',       345, 1,   11,    1, 1,   1.0261076,    -4.17169,  1.1,  0.9,  1.1,  0.9
 11178, 'GREER 4 6   ',       345, 1,   11,    1, 1,   1.0305231,   -3.672612,  1.1,  0.9,  1.1,  0.9
 11179, 'HODGES 1    ',        69, 1,   11,    1, 1,   1.0325362,   -7.611771,  1.1,  0.9,  1.1,  0.9
 11180, 'HONEA PATH 1',       138, 1,   11,    1, 1,   1.0285527,   -3.183606,  1.1,  0.9,  1.1,  0.9
 11181, 'HONEA PATH 1',       138, 1,   11,    1, 1,   1.0286698,   -3.164991,  1.1,  0.9,  1.1,  0.9
 11182, 'HONEA PATH 1',       138, 1,   11,    1, 1,   1.0285527,   -3.183606,  1.1,  0.9,  1.1,  0.9
 11183, 'IVA 1 1     ',        69, 1,   11,    1, 1,   1.0169414,   -4.474134,  1.1,  0.9,  1.1,  0.9
 11184, 'IVA 1 2     ',        69, 1,   11,    1, 1,   1.0171075,   -4.464102,  1.1,  0.9,  1.1,  0.9
 11185, 'LIBERTY 3 1 ',        69, 1,   11,    1, 1,   1.0043052,   -7.126505,  1.1,  0.9,  1.1,  0.9
 11186, 'LIBERTY 3 2 ',        69, 1,   11,    1, 1,   1.0041163,   -7.151764,  1.1,  0.9,  1.1,  0.9
 11187, 'MARIETTA 3 1',        69, 1,   11,    1, 1,   1.0264458,   -8.915384,  1.1,  0.9,  1.1,  0.9
 11188, 'MARIETTA 3 2',        69, 1,   11,    1, 1,   1.0262997,   -8.924881,  1.1,  0.9,  1.1,  0.9
 11189, 'MAULDIN 1   ',        69, 1,   11,    1, 1,   1.0119064,  -10.490988,  1.1,  0.9,  1.1,  0.9
 11190, 'MAULDIN 2   ',        69, 1,   11,    1, 1,   1.0121223,  -10.466689,  1.1,  0.9,  1.1,  0.9
 11191, 'NINETY SIX 1',       138, 1,   11,    1, 1,   1.0303687,    -7.14748,  1.1,  0.9,  1.1,  0.9
 11192, 'NINETY SIX 2',       138, 1,   11,    1, 1,   1.0302601,   -7.159882,  1.1,  0.9,  1.1,  0.9
 11193, 'PELZER 1 1  ',        69, 1,   11,    1, 1,    1.023669,   -7.477214,  1.1,  0.9,  1.1,  0.9
 11194, 'PELZER 1 2  ',        69, 1,   11,    1, 1,   1.0234601,   -7.495308,  1.1,  0.9,  1.1,  0.9
 11195, 'PENDLETON 1 ',        69, 1,   11,    1, 1,   0.9990481,   -7.377161,  1.1,  0.9,  1.1,  0.9
 11196, 'PENDLETON 2 ',        69, 1,   11,    1, 1,   0.9989234,   -7.391848,  1.1,  0.9,  1.1,  0.9
 11197, 'PENDLETON 4 ',        69, 1,   11,    1, 1,   0.9991743,   -7.364005,  1.1,  0.9,  1.1,  0.9
 11198, 'PICKENS 1   ',       138, 1,   11,    1, 1,   1.0305856,   -0.989511,  1.1,  0.9,  1.1,  0.9
 11199, 'PICKENS 2   ',        69, 1,   11,    1, 1,   1.0099249,   -6.649485,  1.1,  0.9,  1.1,  0.9
 11200, 'PICKENS 3   ',        18, 1,   11,    1, 1,   0.9982935,  -14.540626,  1.1,  0.9,  1.1,  0.9
...
0 / END OF BUS DATA, BEGIN LOAD DATA
 11005,  1, 1,   11,    1,     53.22,     12.56, 0, 0, 0, 0, 1, 1, 0
 11008,  1, 1,   11,    1,      5.89,      1.47, 0, 0, 0, 0, 1, 1, 0
 11009,  1, 1,   11,    1,     12.29,      2.77, 0, 0, 0, 0, 1, 1, 0
 11012,  1, 1,   11,    1,     41.52,      5.16, 0, 0, 0, 0, 1, 1, 0
 11018,  1, 1,   11,    1,     40.61,     10.89, 0, 0, 0, 0, 1, 1, 0
 11020,  1, 1,   11,    1,     43.08,     31.77, 0, 0, 0, 0, 1, 1, 0
 11022,  1, 1,   11,    1,     32.58,     13.35, 0, 0, 0, 0, 1, 1, 0
 11023,  1, 1,   11,    1,     32.58,     11.05, 0, 0, 0, 0, 1, 1, 0
 11026,  1, 1,   11,    1,     42.62,       6.8, 0, 0, 0, 0, 1, 1, 0
 11029,  1, 1,   11,    1,     50.01,      8.36, 0, 0, 0, 0, 1, 1, 0
 11031,  1, 1,   11,    1,     58.73,      8.55, 0, 0, 0, 0, 1, 1, 0
 11036,  1, 1,   11,    1,     22.83,       4.5, 0, 0, 0, 0, 1, 1, 0
 11038,  1, 1,   11,    1,     37.56,     16.05, 0, 0, 0, 0, 1, 1, 0
 11039,  1, 1,   11,    1,     48.46,      5.17, 0, 0, 0, 0, 1, 1, 0
 11040,  1, 1,   11,    1,     23.05,      5.37, 0, 0, 0, 0, 1, 1, 0
 11042,  1, 1,   11,    1,     29.46,      2.65, 0, 0, 0, 0, 1, 1, 0
 11043,  1, 1,   11,    1,      0.37,      0.08, 0, 0, 0, 0, 1, 1, 0
 11045,  1, 1,   11,    1,      14.7,      3.14, 0, 0, 0, 0, 1, 1, 0
 11048,  1, 1,   11,    1,     58.78,      13.1, 0, 0, 0, 0, 1, 1, 0
 11051,  1, 1,   11,    1,     50.26,     13.62, 0, 0, 0, 0, 1, 1, 0
 11052,  1, 1,   11,    1,     39.39,      5.71, 0, 0, 0, 0, 1, 1, 0
 11055,  1, 1,   11,    1,     39.17,     19.43, 0, 0, 0, 0, 1, 1, 0
 11056,  1, 1,   11,    1,     10.85,      1.44, 0, 0, 0, 0, 1, 1, 0
 11058,  1, 1,   11,    1,     20.99,      2.31, 0, 0, 0, 0, 1, 1, 0
 11064,  1, 1,   11,    1,     54.54,     14.88, 0, 0, 0, 0, 1, 1, 0
 11067,  1, 1,   11,    1,     26.38,     11.13, 0, 0, 0, 0, 1, 1, 0
 11068,  1, 1,   11,    1,     33.91,      10.1, 0, 0, 0, 0, 1, 1, 0
 11071,  1, 1,   11,    1,     11.72,      3.73, 0, 0, 0, 0, 1, 1, 0
 11072,  1, 1,   11,    1,     17.96,      1.61, 0, 0, 0, 0, 1, 1, 0
 11075,  1, 1,   11,    1,     56.63,     20.34, 0, 0, 0, 0, 1, 1, 0
 11077,  1, 1,   11,    1,     18.77,      2.83, 0, 0, 0, 0, 1, 1, 0
 11080,  1, 1,   11,    1,     46.81,      12.6, 0, 0, 0, 0, 1, 1, 0
 11083,  1, 1,   11,    1,     27.43,      4.42, 0, 0, 0, 0, 1, 1, 0
 11084,  1, 1,   11,    1,     44.74,     17.52, 0, 0, 0, 0, 1, 1, 0
 11086,  1, 1,   11,    1,     44.74,     17.31, 0, 0, 0, 0, 1, 1, 0
 11090,  1, 1,   11,    1,     44.83,     11.68, 0, 0, 0, 0, 1, 1, 0
 11094,  1, 1,   11,    1,     51.91,     27.85, 0, 0, 0, 0, 1, 1, 0
 11095,  1, 1,   11,    1,     36.04,      7.74, 0, 0, 0, 0, 1, 1, 0
 11096,  1, 1,   11,    1,     36.04,       2.7, 0, 0, 0, 0, 1, 1, 0
 11097,  1, 1,   11,    1,     37.44,     21.43, 0, 0, 0, 0, 1, 1, 0
 11099,  1, 1,   11,    1,     37.44,     14.45, 0, 0, 0, 0, 1, 1, 0
 11100,  1, 1,   11,    1,      45.7,     13.49, 0, 0, 0, 0, 1, 1, 0
 11102,  1, 1,   11,    1,      45.7,     10.14, 0, 0, 0, 0, 1, 1, 0
 11105,  1, 1,   11,    1,     33.39,      7.73, 0, 0, 0, 0, 1, 1, 0
 11107,  1, 1,   11,    1,      6.07,      1.26, 0, 0, 0, 0, 1, 1, 0
 11108,  1, 1,   11,    1,     33.39,      11.4, 0, 0, 0, 0, 1, 1, 0
 11109,  1, 1,   11,    1,     33.63,      5.14, 0, 0, 0, 0, 1, 1, 0
 11111,  1, 1,   11,    1,     50.83,      18.1, 0, 0, 0, 0, 1, 1, 0
 11115,  1, 1,   11,    1,     50.83,      4.52, 0, 0, 0, 0, 1, 1, 0
 11117,  1, 1,   11,    1,     37.99,      16.3, 0, 0, 0, 0, 1, 1, 0
 11119,  1, 1,   11,    1,     45.91,     30.33, 0, 0, 0, 0, 1, 1, 0
 11120,  1, 1,   11,    1,      35.8,     10.43, 0, 0, 0, 0, 1, 1, 0
 11122,  1, 1,   11,    1,     32.15,      4.57, 0, 0, 0, 0, 1, 1, 0
 11125,  1, 1,   11,    1,     47.75,      8.66, 0, 0, 0, 0, 1, 1, 0
 11127,  1, 1,   11,    1,      7.83,      2.04, 0, 0, 0, 0, 1, 1, 0
 11128,  1, 1,   11,    1,     37.21,     13.72, 0, 0, 0, 0, 1, 1, 0
 11129,  1, 1,   11,    1,     34.63,     12.39, 0, 0, 0, 0, 1, 1, 0
 11131,  1, 1,   11,    1,     14.53,      3.05, 0, 0, 0, 0, 1, 1, 0
 11133,  1, 1,   11,    1,      7.65,      2.25, 0, 0, 0, 0, 1, 1, 0
 11134,  1, 1,   11,    1,     39.75,      5.63, 0, 0, 0, 0, 1, 1, 0
 11140,  1, 1,   11,    1,     39.75,      4.83, 0, 0, 0, 0, 1, 1, 0
 11141,  1, 1,   11,    1,     38.43,     17.87, 0, 0, 0, 0, 1, 1, 0
 11147,  1, 1,   11,    1,     38.43,      9.55, 0, 0, 0, 0, 1, 1, 0
 11148,  1, 1,   11,    1,      7.17,      1.14, 0, 0, 0, 0, 1, 1, 0
 11149,  1, 1,   11,    1,      48.3,      7.99, 0, 0, 0, 0, 1, 1, 0
 11150,  1, 1,   11,    1,     25.95,      6.14, 0, 0, 0, 0, 1, 1, 0
 11152,  1, 1,   11,    1,      3.23,      1.05, 0, 0, 0, 0, 1, 1, 0
 11153,  1, 1,   11,    1,     36.61,      5.93, 0, 0, 0, 0, 1, 1, 0
 11155,  1, 1,   11,    1,     36.61,      0.87, 0, 0, 0, 0, 1, 1, 0
 11161,  1, 1,   11,    1,     44.36,     11.49, 0, 0, 0, 0, 1, 1, 0
 11163,  1, 1,   11,    1,      6.33,      0.74, 0, 0, 0, 0, 1, 1, 0
 11164,  1, 1,   11,    1,     34.11,      5.36, 0, 0, 0, 0, 1, 1, 0
 11166,  1, 1,   11,    1,     42.42,     16.76, 0, 0, 0, 0, 1, 1, 0
 11172,  1, 1,   11,    1,     42.42,     13.93, 0, 0, 0, 0, 1, 1, 0
 11173,  1, 1,   11,    1,      55.7,     38.61, 0, 0, 0, 0, 1, 1, 0
 11177,  1, 1,   11,    1,      55.7,      1.72, 0, 0, 0, 0, 1, 1, 0
 11179,  1, 1,   11,    1,     12.51,      3.13, 0, 0, 0, 0, 1, 1, 0
 11180,  1, 1,   11,    1,     30.37,      4.37, 0, 0, 0, 0, 1, 1, 0
 11183,  1, 1,   11,    1,     20.58,     10.68, 0, 0, 0, 0, 1, 1, 0
 11186,  1, 1,   11,    1,        40,      8.86, 0, 0, 0, 0, 1, 1, 0
 11188,  1, 1,   11,    1,      18.7,      9.54, 0, 0, 0, 0, 1, 1, 0
 11189,  1, 1,   11,    1,     39.23,      9.15, 0, 0, 0, 0, 1, 1, 0
 11192,  1, 1,   11,    1,     21.45,      4.71, 0, 0, 0, 0, 1, 1, 0
 11194,  1, 1,   11,    1,     32.21,     11.63, 0, 0, 0, 0, 1, 1, 0
 11196,  1, 1,   11,    1,     22.55,      5.68, 0, 0, 0, 0, 1, 1, 0
 11202,  1, 1,   11,    1,     46.88,      9.41, 0, 0, 0, 0, 1, 1, 0
 11204,  1, 1,   11,    1,     30.86,      7.97, 0, 0, 0, 0, 1, 1, 0
 11206,  1, 1,   11,    1,     32.95,      5.37, 0, 0, 0, 0, 1, 1, 0
 11208,  1, 1,   11,    1,     32.95,      5.23, 0, 0, 0, 0, 1, 1, 0
 11209,  1, 1,   11,    1,     20.89,      3.29, 0, 0, 0, 0, 1, 1, 0
 11210,  1, 1,   11,    1,     56.36,     11.18, 0, 0, 0, 0, 1, 1, 0
 11212,  1, 1,   11,    1,     35.47,     13.97, 0, 0, 0, 0, 1, 1, 0
 11215,  1, 1,   11,    1,     35.47,     19.19, 0, 0, 0, 0, 1, 1, 0
 11217,  1, 1,   11,    1,     63.05,     14.41, 0, 0, 0, 0, 1, 1, 0
 11220,  1, 1,   11,    1,     61.07,     14.22, 0, 0, 0, 0, 1, 1, 0
 11221,  1, 1,   11,    1,      9.93,      2.47, 0, 0, 0, 0, 1, 1, 0
 11223,  1, 1,   11,    1,     12.64,      1.45, 0, 0, 0, 0, 1, 1, 0
 11225,  1, 1,   11,    1,     51.43,     45.14, 0, 0, 0, 0, 1, 1, 0
 11226,  1, 1,   11,    1,     51.43,      8.39, 0, 0, 0, 0, 1, 1, 0
 11231,  1, 1,   11,    1,     54.38,     10.83, 0, 0, 0, 0, 1, 1, 0
 11233,  1, 1,   11,    1,     30.33,     10.65, 0, 0, 0, 0, 1, 1, 0
 11234,  1, 1,   11,    1,     12.63,      3.12, 0, 0, 0, 0, 1, 1, 0
 11236,  1, 1,   11,    1,     36.96,      3.34, 0, 0, 0, 0, 1, 1, 0
 11238,  1, 1,   11,    1,     10.72,       0.5, 0, 0, 0, 0, 1, 1, 0
 11239,  1, 1,   11,    1,     31.74,      5.31, 0, 0, 0, 0, 1, 1, 0
 11243,  1, 1,   11,    1,     26.15,      6.52, 0, 0, 0, 0, 1, 1, 0
 11245,  1, 1,   11,    1,      9.67,      2.98, 0, 0, 0, 0, 1, 1, 0
 11247,  1, 1,   11,    1,        58,      6.14, 0, 0, 0, 0, 1, 1, 0
 11249,  1, 1,   11,    1,      4.55,      1.08, 0, 0, 0, 0, 1, 1, 0
 11250,  1, 1,   11,    1,     46.13,     14.17, 0, 0, 0, 0, 1, 1, 0
 11252,  1, 1,   11,    1,     32.55,     10.56, 0, 0, 0, 0, 1, 1, 0
 11255,  1, 1,   11,    1,     32.55,      1.93, 0, 0, 0, 0, 1, 1, 0
 11258,  1, 1,   11,    1,     38.28,     17.73, 0, 0, 0, 0, 1, 1, 0
 11262,  1, 1,   11,    1,     38.28,      8.47, 0, 0, 0, 0, 1, 1, 0
 11263,  1, 1,   11,    1,     19.54,      2.89, 0, 0, 0, 0, 1, 1, 0
 11266,  1, 1,   11,    1,     64.54,     25.08, 0, 0, 0, 0, 1, 1, 0
 11269,  1, 1,   11,    1,     59.85,        19, 0, 0, 0, 0, 1, 1, 0
 11271,  1, 1,   11,    1,     68.19,      17.2, 0, 0, 0, 0, 1, 1, 0
 11276,  1, 1,   11,    1,     68.07,     12.87, 0, 0, 0, 0, 1, 1, 0
 11281,  1, 1,   11,    1,     69.92,     43.25, 0, 0, 0, 0, 1, 1, 0
 11284,  1, 1,   11,    1,     69.92,     29.12, 0, 0, 0, 0, 1, 1, 0
 11285,  1, 1,   11,    1,     37.59,      8.13, 0, 0, 0, 0, 1, 1, 0
 11288,  1, 1,   11,    1,     42.14,      8.58, 0, 0, 0, 0, 1, 1, 0
 11291,  1, 1,   11,    1,      23.9,      3.89, 0, 0, 0, 0, 1, 1, 0
 11333,  1, 1,   11,    1,      2.78,      0.99, 0, 0, 0, 0, 1, 1, 0
 11376,  1, 1,   11,    1,       3.2,      1.31, 0, 0, 0, 0, 1, 1, 0
 13001,  1, 1,   13,    1,      37.5,     11.04, 0, 0, 0, 0, 1, 1, 0
 13004,  1, 1,   13,    1,     72.49,      7.79, 0, 0, 0, 0, 1, 1, 0
 13005,  1, 1,   13,    1,     72.49,     20.68, 0, 0, 0, 0, 1, 1, 0
 13007,  1, 1,   13,    1,     54.41,     25.25, 0, 0, 0, 0, 1, 1, 0
 13010,  1, 1,   13,    1,     54.41,     18.05, 0, 0, 0, 0, 1, 1, 0
 13011,  1, 1,   13,    1,     35.12,     12.69, 0, 0, 0, 0, 1, 1, 0
 13012,  1, 1,   13,    1,     57.07,     38.25, 0, 0, 0, 0, 1, 1, 0
 13014,  1, 1,   13,    1,     52.54,     19.41, 0, 0, 0, 0, 1, 1, 0
 13015,  1, 1,   13,    1,     28.55,     16.51, 0, 0, 0, 0, 1, 1, 0
 13018,  1, 1,   13,    1,     54.27,      8.28, 0, 0, 0, 0, 1, 1, 0
 13020,  1, 1,   13,    1,     45.67,      15.2, 0, 0, 0, 0, 1, 1, 0
 13022,  1, 1,   13,    1,     26.92,     12.01, 0, 0, 0, 0, 1, 1, 0
 13024,  1, 1,   13,    1,     31.11,      2.56, 0, 0, 0, 0, 1, 1, 0
 13025,  1, 1,   13,    1,     31.11,     10.44, 0, 0, 0, 0, 1, 1, 0
 13027,  1, 1,   13,    1,     52.04,      14.7, 0, 0, 0, 0, 1, 1, 0
 13028,  1, 1,   13,    1,     41.34,      7.16, 0, 0, 0, 0, 1, 1, 0
 13029,  1, 1,   13,    1,     41.34,     25.51, 0, 0, 0, 0, 1, 1, 0
 13032,  1, 1,   13,    1,     32.57,      3.68, 0, 0, 0, 0, 1, 1, 0
 13034,  1, 1,   13,    1,     32.57,      2.83, 0, 0, 0, 0, 1, 1, 0
 13036,  1, 1,   13,    1,     26.48,      1.31, 0, 0, 0, 0, 1, 1, 0
 13038,  1, 1,   13,    1,     31.82,      10.6, 0, 0, 0, 0, 1, 1, 0
 13040,  1, 1,   13,    1,     16.83,       5.7, 0, 0, 0, 0, 1, 1, 0
 13042,  1, 1,   13,    1,     40.66,     20.32, 0, 0, 0, 0, 1, 1, 0
 13044,  1, 1,   13,    1,     40.66,     26.38, 0, 0, 0, 0, 1, 1, 0
 13045,  1, 1,   13,    1,     35.14,      7.63, 0, 0, 0, 0, 1, 1, 0
 13046,  1, 1,   13,    1,     35.14,     31.87, 0, 0, 0, 0, 1, 1, 0
 13049,  1, 1,   13,    1,     22.33,      7.81, 0, 0, 0, 0, 1, 1, 0
 13052,  1, 1,   13,    1,     36.86,     10.05, 0, 0, 0, 0, 1, 1, 0
 13053,  1, 1,   13,    1,     57.51,      8.13, 0, 0, 0, 0, 1, 1, 0
 13056,  1, 1,   13,    1,     57.51,     12.93, 0, 0, 0, 0, 1, 1, 0
 13057,  1, 1,   13,    1,      35.4,       2.7, 0, 0, 0, 0, 1, 1, 0
 13058,  1, 1,   13,    1,     46.79,      6.81, 0, 0, 0, 0, 1, 1, 0
 13060,  1, 1,   13,    1,     46.79,      6.51, 0, 0, 0, 0, 1, 1, 0
 13062,  1, 1,   13,    1,      18.2,      4.17, 0, 0, 0, 0, 1, 1, 0
 13063,  1, 1,   13,    1,     21.53,      3.67, 0, 0, 0, 0, 1, 1, 0
 13064,  1, 1,   13,    1,      24.4,      2.84, 0, 0, 0, 0, 1, 1, 0
 13066,  1, 1,   13,    1,     48.27,     16.15, 0, 0, 0, 0, 1, 1, 0
 13070,  1, 1,   13,    1,     48.27,      3.72, 0, 0, 0, 0, 1, 1, 0
 13072,  1, 1,   13,    1,     33.76,     10.53, 0, 0, 0, 0, 1, 1, 0
 13075,  1, 1,   13,    1,     33.76,      7.64, 0, 0, 0, 0, 1, 1, 0
 13080,  1, 1,   13,    1,     54.91,      6.77, 0, 0, 0, 0, 1, 1, 0
 13082,  1, 1,   13,    1,     29.44,      2.76, 0, 0, 0, 0, 1, 1, 0
 13083,  1, 1,   13,    1,     29.44,      5.22, 0, 0, 0, 0, 1, 1, 0
 13086,  1, 1,   13,    1,     27.92,      8.97, 0, 0, 0, 0, 1, 1, 0
 13088,  1, 1,   13,    1,     31.24,     17.62, 0, 0, 0, 0, 1, 1, 0
 13089,  1, 1,   13,    1,     23.29,      2.47, 0, 0, 0, 0, 1, 1, 0
 13090,  1, 1,   13,    1,     11.79,      1.41, 0, 0, 0, 0, 1, 1, 0
 13091,  1, 1,   13,    1,     69.89,     17.72, 0, 0, 0, 0, 1, 1, 0
 13097,  1, 1,   13,    1,     69.89,     20.74, 0, 0, 0, 0, 1, 1, 0
 13099,  1, 1,   13,    1,     34.59,     12.73, 0, 0, 0, 0, 1, 1, 0
 13101,  1, 1,   13,    1,     53.11,     18.93, 0, 0, 0, 0, 1, 1, 0
 13103,  1, 1,   13,    1,     65.03,     13.11, 0, 0, 0, 0, 1, 1, 0
 13104,  1, 1,   13,    1,      33.7,     13.02, 0, 0, 0, 0, 1, 1, 0
 13106,  1, 1,   13,    1,      33.7,       2.4, 0, 0, 0, 0, 1, 1, 0
 13111,  1, 1,   13,    1,     80.29,     30.42, 0, 0, 0, 0, 1, 1, 0
 13114,  1, 1,   13,    1,     80.29,     13.44, 0, 0, 0, 0, 1, 1, 0
 13116,  1, 1,   13,    1,     26.07,      3.28, 0, 0, 0, 0, 1, 1, 0
 13118,  1, 1,   13,    1,     44.06,      6.87, 0, 0, 0, 0, 1, 1, 0
 13120,  1, 1,   13,    1,     51.75,     14.38, 0, 0, 0, 0, 1, 1, 0
 13123,  1, 1,   13,    1,     51.75,     36.73, 0, 0, 0, 0, 1, 1, 0
 13125,  1, 1,   13,    1,     29.78,     10.04, 0, 0, 0, 0, 1, 1, 0
 13126,  1, 1,   13,    1,     31.14,      6.11, 0, 0, 0, 0, 1, 1, 0
 13129,  1, 1,   13,    1,     31.45,      7.87, 0, 0, 0, 0, 1, 1, 0
 13130,  1, 1,   13,    1,     31.45,     13.58, 0, 0, 0, 0, 1, 1, 0
 13132,  1, 1,   13,    1,     33.94,      8.84, 0, 0, 0, 0, 1, 1, 0
 13133,  1, 1,   13,    1,     41.48,     19.57, 0, 0, 0, 0, 1, 1, 0
 13136,  1, 1,   13,    1,     47.27,     12.91, 0, 0, 0, 0, 1, 1, 0
 13137,  1, 1,   13,    1,      20.5,     10.22, 0, 0, 0, 0, 1, 1, 0
 13139,  1, 1,   13,    1,     17.54,      3.84, 0, 0, 0, 0, 1, 1, 0
 13141,  1, 1,   13,    1,        54,      3.44, 0, 0, 0, 0, 1, 1, 0
 13142,  1, 1,   13,    1,     43.86,     10.45, 0, 0, 0, 0, 1, 1, 0
 13144,  1, 1,   13,    1,     47.25,      8.03, 0, 0, 0, 0, 1, 1, 0
 13149,  1, 1,   13,    1,     53.77,       5.5, 0, 0, 0, 0, 1, 1, 0
 13151,  1, 1,   13,    1,     36.36,     11.44, 0, 0, 0, 0, 1, 1, 0
...
0 / END OF LOAD DATA, BEGIN FIXED SHUNT DATA
 11011, 1, 1,       0,      24
 11021, 1, 1,       0,      26
 11036, 1, 1,       0,      40
 11037, 1, 1,       0,      40
 11057, 1, 1,       0,      21
 11091, 1, 1,       0,     422
 11233, 1, 1,       0,    32.5
 13042, 1, 1,       0,     8.5
 13155, 1, 1,       0,      61
 13260, 1, 1,       0,      42
 13265, 1, 1,       0,      35
 13280, 1, 1,       0,     228
 13301, 1, 1,       0,    38.5
 13303, 1, 1,       0,      42
 13325, 1, 1,       0,     132
 13338, 1, 1,       0,   162.5
 13456, 1, 1,       0,     215
 13460, 1, 1,       0,      60
 13548, 1, 1,       0,     -18
 13580, 1, 1,       0,     -70
 13658, 1, 1,       0,      14
 13727, 1, 1,       0,      90
 13764, 1, 1,       0,     732
 13869, 1, 1,       0,      51
 13877, 1, 1,       0,      21
 13897, 1, 1,       0,      21
 14024, 1, 1,       0,      23
 14032, 1, 1,       0,    -2.5
 14056, 1, 1,       0,     522
 14072, 1, 1,       0,     332
 14101, 1, 1,       0,      67
 14235, 1, 1,       0,    -130
 14255, 1, 1,       0,      49
 14293, 1, 1,       0,   -26.5
 14312, 1, 1,       0,    -524
 14380, 1, 1,       0,     -71
 14388, 1, 1,       0,     114
 14402, 1, 1,       0,    -366
 14409, 1, 1,       0,     161
 14430, 1, 1,       0,    -300
 14468, 1, 1,       0,    -740
 14476, 1, 1,       0,     808
 14507, 1, 1,       0,      60
 14518, 1, 1,       0,    -574
 14544, 1, 1,       0,     481
 14557, 1, 1,       0,    93.5
 14567, 1, 1,       0,    -282
 14571, 1, 1,       0,     -55
 14590, 1, 1,       0,     -33
 14604, 1, 1,       0,      62
 14620, 1, 1,       0,    60.5
 14642, 1, 1,       0,    -734
 14674, 1, 1,       0,      30
 14682, 1, 1,       0,  -149.5
 14749, 1, 1,       0,    -752
 14782, 1, 1,       0,    -340
 14794, 1, 1,       0,      41
 14804, 1, 1,       0,   -26.5
 15001, 1, 1,       0,    43.5
 15041, 1, 1,       0,      11
 15045, 1, 1,       0,      34
 15051, 1, 1,       0,      30
 15124, 1, 1,       0,      44
 15133, 1, 1,       0,      18
 15163, 1, 1,       0,  -115.5
 15186, 1, 1,       0,      18
 15230, 1, 1,       0,      71
 15244, 1, 1,       0,      18
 15300, 1, 1,       0,      51
 15382, 1, 1,       0,   430.5
 15447, 1, 1,       0,     -54
 15466, 1, 1,       0,      90
 15470, 1, 1,       0,      34
 15484, 1, 1,       0,     101
 15502, 1, 1,       0,     251
 15560, 1, 1,       0,      35
 15606, 1, 1,       0,     420
 15696, 1, 1,       0,      18
 15758, 1, 1,       0,      34
 15881, 1, 1,       0,      20
 15905, 1, 1,       0,      26
 15967, 1, 1,       0,    -588
 15988, 1, 1,       0,      54
 16034, 1, 1,       0,    89.5
 16069, 1, 1,       0,     -46
 16095, 1, 1,       0,    -282
 16115, 1, 1,       0,     -77
 16129, 1, 1,       0,    25.5
 16141, 1, 1,       0,     -32
 16173, 1, 1,       0,     352
 16181, 1, 1,       0,    -152
 16227, 1, 1,       0,    -472
 16250, 1, 1,       0,    -560
 16288, 1, 1,       0,  -245.5
 16300, 1, 1,       0,   -68.5
 16320, 1, 1,       0,     -60
 16346, 1, 1,       0,    -400
 16365, 1, 1,       0,     -92
 16391, 1, 1,       0,     291
 16396, 1, 1,       0,    85.5
 16411, 1, 1,       0,       8
 16418, 1, 1,       0,     -70
 16424, 1, 1,       0,    -114
 16440, 1, 1,       0,     104
 16463, 1, 1,       0,  -307.5
 17034, 1, 1,       0,      34
 17183, 1, 1,       0,      54
 17204, 1, 1,       0,    16.5
 17210, 1, 1,       0,     2.5
 17216, 1, 1,       0,       4
 17244, 1, 1,       0,      14
 17261, 1, 1,       0,     5.5
 17303, 1, 1,       0,     -17
 17335, 1, 1,       0,    -180
 17459, 1, 1,       0,    -552
 17536, 1, 1,       0,    -340
 17551, 1, 1,       0,    -696
 19189, 1, 1,       0,       6
 19229, 1, 1,       0,     -26
 21108, 1, 1,       0,      28
 21134, 1, 1,       0,      18
 21141, 1, 1,       0,      84
 21225, 1, 1,       0,     8.5
 21234, 1, 1,       0,    34.5
 21244, 1, 1,       0,     862
 21297, 1, 1,       0,     177
 21346, 1, 1,       0,      92
 21387, 1, 1,       0,     338
 21405, 1, 1,       0,     758
 21428, 1, 1,       0,     350
 21438, 1, 1,       0,     -56
 21457, 1, 1,       0,   107.5
 21473, 1, 1,       0,   288.5
 21492, 1, 1,       0,     154
 21567, 1, 1,       0,    69.5
 21595, 1, 1,       0,     446
 21650, 1, 1,       0,    22.5
 21668, 1, 1,       0,      70
 21683, 1, 1,       0,       3
 21684, 1, 1,       0,     830
 21717, 1, 1,       0,     146
 21805, 1, 1,       0,      10
 21823, 1, 1,       0,       4
 21831, 1, 1,       0,     -15
 21868, 1, 1,       0,      38
 21899, 1, 1,       0,      -8
 21901, 1, 1,       0,      20
 21906, 1, 1,       0,      50
 21928, 1, 1,       0,    -280
 21942, 1, 1,       0,     208
 21951, 1, 1,       0,    -420
 21969, 1, 1,       0,      22
 21986, 1, 1,       0,      12
 21999, 1, 1,       0,     5.5
 22003, 1, 1,       0,    -442
 22017, 1, 1,       0,    -590
 22054, 1, 1,       0,    -182
 22061, 1, 1,       0,    -492
 22065, 1, 1,       0,     -60
 22086, 1, 1,       0,     346
 23012, 1, 1,       0,   331.5
 23052, 1, 1,       0,      24
 23096, 1, 1,       0,      45
 23151, 1, 1,       0,    38.5
 23185, 1, 1,       0,      25
 23196, 1, 1,       0,      41
 23222, 1, 1,       0,      26
 23249, 1, 1,       0,      36
 23260, 1, 1,       0,      46
 23314, 1, 1,       0,      28
 23340, 1, 1,       0,     120
 23395, 1, 1,       0,      29
 23434, 1, 1,       0,    42.5
 23470, 1, 1,       0,    -386
 23485, 1, 1,       0,      -8
 23499, 1, 1,       0,    -140
 23509, 1, 1,       0,       4
 23510, 1, 1,       0,  -325.5
 23517, 1, 1,       0,     -24
 23566, 1, 1,       0,     8.5
 23613, 1, 1,       0,    -210
 23652, 1, 1,       0,    99.5
 23707, 1, 1,       0,     194
 23725, 1, 1,       0,    -160
 25034, 1, 1,       0,      38
 25036, 1, 1,       0,     -84
 25045, 1, 1,       0,      40
 25121, 1, 1,       0,    32.5
 25192, 1, 1,       0,      24
 25352, 1, 1,       0,     112
 25388, 1, 1,       0,      34
 25396, 1, 1,       0,      16
 25400, 1, 1,       0,     184
 25407, 1, 1,       0,      21
 25548, 1, 1,       0,      88
 25556, 1, 1,       0,      48
 25572, 1, 1,       0,     106
 25681, 1, 1,       0,      84
 25720, 1, 1,       0,       4
 25780, 1, 1,       0,   365.5
...
0 / END OF FIXED SHUNT DATA, BEGIN GENERATOR DATA
 11294,  1,       1.6,      0.81,      0.81,     -0.18,   1.0269, 0,    1.92, 0, 1, 0, 0, 1, 1, 100,       1.6,       0.6, 1, 1, 0, 1, 0, 1, 0, 1, 0, 1
 11297,  1,         0,         0,      1.35,     -0.35,     1.04, 0,    3.48, 0, 1, 0, 0, 1, 0, 100,       2.9,      1.25, 1, 1, 0, 1, 0, 1, 0, 1, 0, 1
 11299,  1,      1.03,      0.52,      0.52,     -0.11,     1.04, 0,    1.23, 0, 1, 0, 0, 1, 1, 100,      1.03,      0.19, 1, 1, 0, 1, 0, 1, 0, 1, 0, 1
 11299,  2,      1.03,      0.52,      0.52,     -0.11,     1.04, 0,    1.23, 0, 1, 0, 0, 1, 1, 100,      1.03,      0.18, 1, 1, 0, 1, 0, 1, 0, 1, 0, 1
 11299,  3,      1.03,      0.52,      0.52,     -0.11,     1.04, 0,    1.23, 0, 1, 0, 0, 1, 1, 100,      1.03,       0.3, 1, 1, 0, 1, 0, 1, 0, 1, 0, 1
 11299,  4,      1.03,      0.52,      0.52,     -0.11,     1.04, 0,    1.23, 0, 1, 0, 0, 1, 1, 100,      1.03,      0.41, 1, 1, 0, 1, 0, 1, 0, 1, 0, 1
 11299,  5,       1.1,      0.56,      0.56,     -0.12,     1.04, 0,    1.32, 0, 1, 0, 0, 1, 1, 100,       1.1,      0.54, 1, 1, 0, 1, 0, 1, 0, 1, 0, 1
 11299,  6,       1.1,      0.56,      0.56,     -0.12,     1.04, 0,    1.32, 0, 1, 0, 0, 1, 1, 100,       1.1,      0.29, 1, 1, 0, 1, 0, 1, 0, 1, 0, 1
 11299,  7,       1.1,      0.56,      0.56,     -0.12,     1.04, 0,    1.32, 0, 1, 0, 0, 1, 1, 100,       1.1,       0.3, 1, 1, 0, 1, 0, 1, 0, 1, 0, 1
 11302,  1,         0,         0,       0.5,     -0.06,   1.0344, 0,    1.56, 0, 1, 0, 0, 1, 0, 100,       1.3,      0.58, 1, 1, 0, 1, 0, 1, 0, 1, 0, 1
 11303,  1,       1.3,     -0.06,       0.5,     -0.06,   1.0343, 0,    1.56, 0, 1, 0, 0, 1, 1, 100,       1.3,      0.42, 1, 1, 0, 1, 0, 1, 0, 1, 0, 1
 11303,  2,       1.3,     -0.06,       0.5,     -0.06,   1.0343, 0,    1.56, 0, 1, 0, 0, 1, 1, 100,       1.3,      0.23, 1, 1, 0, 1, 0, 1, 0, 1, 0, 1
 11304,  1,       1.3,     -0.06,       0.5,     -0.06,   1.0343, 0,    1.56, 0, 1, 0, 0, 1, 1, 100,       1.3,      0.42, 1, 1, 0, 1, 0, 1, 0, 1, 0, 1
 11309,  1,         0,         0,      0.84,     -0.22,   1.0105, 0,    2.16, 0, 1, 0, 0, 1, 0, 100,       1.8,      0.58, 1, 1, 0, 1, 0, 1, 0, 1, 0, 1
 11309,  2,         0,         0,      0.84,     -0.22,   1.0105, 0,    2.16, 0, 1, 0, 0, 1, 0, 100,       1.8,      0.56, 1, 1, 0, 1, 0, 1, 0, 1, 0, 1
 11310,  1,         0,         0,      0.84,     -0.22,   1.0105, 0,    2.16, 0, 1, 0, 0, 1, 0, 100,       1.8,      0.65, 1, 1, 0, 1, 0, 1, 0, 1, 0, 1
 11311,  1,         0,         0,      0.84,     -0.22,   1.0105, 0,    2.16, 0, 1, 0, 0, 1, 0, 100,       1.8,      0.58, 1, 1, 0, 1, 0, 1, 0, 1, 0, 1
 11315,  1,      50.6,     25.76,     25.76,     -5.62,    1.006, 0,   60.72, 0, 1, 0, 0, 1, 1, 100,      50.6,     16.87, 1, 1, 0, 1, 0, 1, 0, 1, 0, 1
 11316,  1,      50.6,     25.76,     25.76,     -5.62,    1.007, 0,   60.72, 0, 1, 0, 0, 1, 1, 100,      50.6,     20.09, 1, 1, 0, 1, 0, 1, 0, 1, 0, 1
 11320,  1,       3.6,      1.38,      1.38,     -0.18,   1.0582, 0,    4.32, 0, 1, 0, 0, 1, 1, 100,       3.6,      1.64, 1, 1, 0, 1, 0, 1, 0, 1, 0, 1
 11320,  2,       3.6,      1.38,      1.38,     -0.18,   1.0582, 0,    4.32, 0, 1, 0, 0, 1, 1, 100,       3.6,      1.38, 1, 1, 0, 1, 0, 1, 0, 1, 0, 1
 11321,  1,       3.6,      1.38,      1.38,     -0.18,   1.0564, 0,    4.32, 0, 1, 0, 0, 1, 1, 100,       3.6,      1.61, 1, 1, 0, 1, 0, 1, 0, 1, 0, 1
 11321,  2,         0,         0,      1.38,     -0.18,   1.0564, 0,    4.32, 0, 1, 0, 0, 1, 0, 100,       3.6,      1.08, 1, 1, 0, 1, 0, 1, 0, 1, 0, 1
 11322,  1,       3.6,      1.38,      1.38,     -0.18,    1.059, 0,    4.32, 0, 1, 0, 0, 1, 1, 100,       3.6,      1.63, 1, 1, 0, 1, 0, 1, 0, 1, 0, 1
 11325,  1,       5.5,       2.8,       2.8,     -0.61,   1.0195, 0,     6.6, 0, 1, 0, 0, 1, 1, 100,       5.5,      2.49, 1, 1, 0, 1, 0, 1, 0, 1, 0, 1
 11326,  1,       5.5,       2.8,       2.8,     -0.61,   1.0195, 0,     6.6, 0, 1, 0, 0, 1, 1, 100,       5.5,      1.41, 1, 1, 0, 1, 0, 1, 0, 1, 0, 1
 11330,  1,         0,         0,      0.77,      -0.1,   1.0323, 0,     2.4, 0, 1, 0, 0, 1, 0, 100,         2,      0.22, 1, 1, 0, 1, 0, 1, 0, 1, 0, 1
 11332,  1,         0,         0,      0.84,     -0.22,     1.04, 0,    2.16, 0, 1, 0, 0, 1, 0, 100,       1.8,      0.41, 1, 1, 0, 1, 0, 1, 0, 1, 0, 1
 11332,  2,         0,         0,      0.84,     -0.22,     1.04, 0,    2.16, 0, 1, 0, 0, 1, 0, 100,       1.8,      0.29, 1, 1, 0, 1, 0, 1, 0, 1, 0, 1
 11332,  3,         0,         0,      0.84,     -0.22,     1.04, 0,    2.16, 0, 1, 0, 0, 1, 0, 100,       1.8,      0.19, 1, 1, 0, 1, 0, 1, 0, 1, 0, 1
 11333,  1,       4.3,     -0.21,      1.65,     -0.21,    1.045, 0,    5.16, 0, 1, 0, 0, 1, 1, 100,       4.3,      2.01, 1, 1, 0, 1, 0, 1, 0, 1, 0, 1
 11334,  1,      1.43,      1.35,      1.35,     -0.35,    1.039, 0,    3.48, 0, 1, 0, 0, 1, 1, 100,       2.9,      1.43, 1, 1, 0, 1, 0, 1, 0, 1, 0, 1
 11334,  2,         0,         0,      1.35,     -0.35,    1.039, 0,    3.48, 0, 1, 0, 0, 1, 0, 100,       2.9,      1.19, 1, 1, 0, 1, 0, 1, 0, 1, 0, 1
 11336,  1,       1.1,      0.42,      0.42,     -0.05,   1.0372, 0,    1.32, 0, 1, 0, 0, 1, 1, 100,       1.1,      0.38, 1, 1, 0, 1, 0, 1, 0, 1, 0, 1
 11339,  1,        15,     -0.74,      5.76,     -0.74,   1.0305, 0,      18, 0, 1, 0, 0, 1, 1, 100,        15,      3.88, 1, 1, 0, 1, 0, 1, 0, 1, 0, 1
 11340,  1,        15,     -0.74,      5.76,     -0.74,   1.0177, 0,      18, 0, 1, 0, 0, 1, 1, 100,        15,      2.94, 1, 1, 0, 1, 0, 1, 0, 1, 0, 1
 11340,  2,        15,     -0.74,      5.76,     -0.74,   1.0177, 0,      18, 0, 1, 0, 0, 1, 1, 100,        15,      2.83, 1, 1, 0, 1, 0, 1, 0, 1, 0, 1
 11341,  1,         0,         0,      5.76,     -0.74,   1.0499, 0,      18, 0, 1, 0, 0, 1, 0, 100,        15,      6.36, 1, 1, 0, 1, 0, 1, 0, 1, 0, 1
 11348,  1,         1,      0.38,      0.38,     -0.05,   1.0396, 0,     1.2, 0, 1, 0, 0, 1, 1, 100,         1,      0.35, 1, 1, 0, 1, 0, 1, 0, 1, 0, 1
 11355,  1,       0.6,      0.23,      0.23,     -0.03,   1.0171, 0,    0.72, 0, 1, 0, 0, 1, 1, 100,       0.6,      0.19, 1, 1, 0, 1, 0, 1, 0, 1, 0, 1
 11356,  1,       0.6,      0.23,      0.23,     -0.03,   1.0184, 0,    0.72, 0, 1, 0, 0, 1, 1, 100,       0.6,      0.19, 1, 1, 0, 1, 0, 1, 0, 1, 0, 1
 11356,  2,       0.6,      0.23,      0.23,     -0.03,   1.0184, 0,    0.72, 0, 1, 0, 0, 1, 1, 100,       0.6,      0.22, 1, 1, 0, 1, 0, 1, 0, 1, 0, 1
 11357,  1,       0.6,      0.23,      0.23,     -0.03,   1.0187, 0,    0.72, 0, 1, 0, 0, 1, 1, 100,       0.6,       0.2, 1, 1, 0, 1, 0, 1, 0, 1, 0, 1
 11362,  1,       0.7,      0.27,      0.27,     -0.03,   1.0625, 0,    0.84, 0, 1, 0, 0, 1, 1, 100,       0.7,       0.3, 1, 1, 0, 1, 0, 1, 0, 1, 0, 1
 11363,  1,       0.7,      0.27,      0.27,     -0.03,   1.0633, 0,    0.84, 0, 1, 0, 0, 1, 1, 100,       0.7,       0.1, 1, 1, 0, 1, 0, 1, 0, 1, 0, 1
 11365,  1,         0,         0,      0.61,     -0.16,     1.04, 0,    1.56, 0, 1, 0, 0, 1, 0, 100,       1.3,      0.61, 1, 1, 0, 1, 0, 1, 0, 1, 0, 1
 11366,  1,         0,         0,      0.61,     -0.16,   1.0166, 0,    1.56, 0, 1, 0, 0, 1, 0, 100,       1.3,      0.58, 1, 1, 0, 1, 0, 1, 0, 1, 0, 1
 11367,  1,         0,         0,      0.61,     -0.16,   1.0166, 0,    1.56, 0, 1, 0, 0, 1, 0, 100,       1.3,      0.36, 1, 1, 0, 1, 0, 1, 0, 1, 0, 1
 11372,  1,     193.5,     14.41,      74.3,     -9.48,   1.0439, 0,   232.2, 0, 1, 0, 0, 1, 1, 100,     193.5,     39.82, 1, 1, 0, 1, 0, 1, 0, 1, 0, 1
 11373,  1,         0,         0,      74.3,     -9.48,     1.04, 0,   232.2, 0, 1, 0, 0, 1, 0, 100,     193.5,     31.96, 1, 1, 0, 1, 0, 1, 0, 1, 0, 1
 11374,  1,     193.5,     14.41,      74.3,     -9.48,   1.0439, 0,   232.2, 0, 1, 0, 0, 1, 1, 100,     193.5,     31.34, 1, 1, 0, 1, 0, 1, 0, 1, 0, 1
 11375,  1,     193.5,     14.41,      74.3,     -9.48,   1.0449, 0,   232.2, 0, 1, 0, 0, 1, 1, 100,     193.5,     40.92, 1, 1, 0, 1, 0, 1, 0, 1, 0, 1
 11380,  1,     888.9,     68.93,    327.12,    -72.89,   1.0468, 0, 1066.68, 0, 1, 0, 0, 1, 1, 100,     888.9,    358.44, 1, 1, 0, 1, 0, 1, 0, 1, 0, 1
 11381,  1,     888.9,     68.93,    327.12,    -72.89,   1.0465, 0, 1066.68, 0, 1, 0, 0, 1, 1, 100,     888.9,    250.85, 1, 1, 0, 1, 0, 1, 0, 1, 0, 1
 11382,  1,     888.9,     68.93,    327.12,    -72.89,   1.0464, 0, 1066.68, 0, 1, 0, 0, 1, 1, 100,     888.9,    196.87, 1, 1, 0, 1, 0, 1, 0, 1, 0, 1
 11389,  1,       197,    -15.11,    100.27,    -21.87,   1.0355, 0,   236.4, 0, 1, 0, 0, 1, 1, 100,       197,     89.23, 1, 1, 0, 1, 0, 1, 0, 1, 0, 1
 11390,  1,       197,    -15.11,    100.27,    -21.87,    1.035, 0,   236.4, 0, 1, 0, 0, 1, 1, 100,       197,     84.26, 1, 1, 0, 1, 0, 1, 0, 1, 0, 1
 11391,  1,       197,    -15.11,    100.27,    -21.87,   1.0361, 0,   236.4, 0, 1, 0, 0, 1, 1, 100,       197,     82.38, 1, 1, 0, 1, 0, 1, 0, 1, 0, 1
 11392,  1,       197,    -15.11,    100.27,    -21.87,   1.0353, 0,   236.4, 0, 1, 0, 0, 1, 1, 100,       197,     26.04, 1, 1, 0, 1, 0, 1, 0, 1, 0, 1
 11393,  1,       197,    -15.11,    100.27,    -21.87,   1.0368, 0,   236.4, 0, 1, 0, 0, 1, 1, 100,       197,     33.65, 1, 1, 0, 1, 0, 1, 0, 1, 0, 1
 11396,  1,         0,         0,      0.64,     -0.08,    1.038, 0,    2.01, 0, 1, 0, 0, 1, 0, 100,      1.68,      0.36, 1, 1, 0, 1, 0, 1, 0, 1, 0, 1
 11396,  2,         0,         0,      0.64,     -0.08,    1.038, 0,    2.01, 0, 1, 0, 0, 1, 0, 100,      1.68,      0.44, 1, 1, 0, 1, 0, 1, 0, 1, 0, 1
 11396,  3,      1.68,     -0.08,      0.64,     -0.08,    1.038, 0,    2.01, 0, 1, 0, 0, 1, 1, 100,      1.68,      0.56, 1, 1, 0, 1, 0, 1, 0, 1, 0, 1
 11396,  4,      1.68,     -0.08,      0.64,     -0.08,    1.038, 0,    2.01, 0, 1, 0, 0, 1, 1, 100,      1.68,      0.29, 1, 1, 0, 1, 0, 1, 0, 1, 0, 1
 11397,  1,       3.3,      1.27,      1.27,     -0.16,   1.0455, 0,    3.96, 0, 1, 0, 0, 1, 1, 100,       3.3,      0.44, 1, 1, 0, 1, 0, 1, 0, 1, 0, 1
 11401,  1,       3.1,      0.45,      1.19,     -0.15,   1.0208, 0,    3.72, 0, 1, 0, 0, 1, 1, 100,       3.1,      0.83, 1, 1, 0, 1, 0, 1, 0, 1, 0, 1
 11402,  1,         0,         0,      1.19,     -0.15,   1.0196, 0,    3.72, 0, 1, 0, 0, 1, 0, 100,       3.1,      0.98, 1, 1, 0, 1, 0, 1, 0, 1, 0, 1
 11406,  1,         0,         0,      0.77,      -0.2,    1.027, 0,    1.98, 0, 1, 0, 0, 1, 0, 100,      1.65,      0.66, 1, 1, 0, 1, 0, 1, 0, 1, 0, 1
 11406,  2,      1.65,      0.77,      0.77,      -0.2,    1.027, 0,    1.98, 0, 1, 0, 0, 1, 1, 100,      1.65,      0.19, 1, 1, 0, 1, 0, 1, 0, 1, 0, 1
 11407,  1,         0,         0,      0.23,     -0.06,   1.0276, 0,     0.6, 0, 1, 0, 0, 1, 0, 100,       0.5,      0.24, 1, 1, 0, 1, 0, 1, 0, 1, 0, 1
 11407,  2,       0.5,      0.23,      0.23,     -0.06,   1.0276, 0,     0.6, 0, 1, 0, 0, 1, 1, 100,       0.5,      0.21, 1, 1, 0, 1, 0, 1, 0, 1, 0, 1
 11412,  1,         3,     -0.15,      1.15,     -0.15,    1.043, 0,     3.6, 0, 1, 0, 0, 1, 1, 100,         3,      1.35, 1, 1, 0, 1, 0, 1, 0, 1, 0, 1
 11412,  2,         3,     -0.15,      1.15,     -0.15,    1.043, 0,     3.6, 0, 1, 0, 0, 1, 1, 100,         3,      0.68, 1, 1, 0, 1, 0, 1, 0, 1, 0, 1
 11412,  3,         3,     -0.15,      1.15,     -0.15,    1.043, 0,     3.6, 0, 1, 0, 0, 1, 1, 100,         3,      0.34, 1, 1, 0, 1, 0, 1, 0, 1, 0, 1
 11412,  4,         3,     -0.15,      1.15,     -0.15,    1.043, 0,     3.6, 0, 1, 0, 0, 1, 1, 100,         3,      0.92, 1, 1, 0, 1, 0, 1, 0, 1, 0, 1
 11412,  5,         0,         0,      1.15,     -0.15,    1.043, 0,     3.6, 0, 1, 0, 0, 1, 0, 100,         3,      1.33, 1, 1, 0, 1, 0, 1, 0, 1, 0, 1
 11412,  6,         0,         0,      1.15,     -0.15,    1.043, 0,     3.6, 0, 1, 0, 0, 1, 0, 100,         3,      0.73, 1, 1, 0, 1, 0, 1, 0, 1, 0, 1
 11415,  1,         0,         0,      1.35,     -0.35,   1.0051, 0,    3.48, 0, 1, 0, 0, 1, 0, 100,       2.9,      1.16, 1, 1, 0, 1, 0, 1, 0, 1, 0, 1
 11417,  1,       2.9,      1.35,      1.35,     -0.35,     1.04, 0,    3.48, 0, 1, 0, 0, 1, 1, 100,       2.9,      1.35, 1, 1, 0, 1, 0, 1, 0, 1, 0, 1
 11421,  1,       175,     89.07,     89.07,    -19.43,   1.0091, 0,     210, 0, 1, 0, 0, 1, 1, 100,       175,     83.09, 1, 1, 0, 1, 0, 1, 0, 1, 0, 1
 11422,  1,        54,     27.49,     27.49,     -5.99,   1.0073, 0,    64.8, 0, 1, 0, 0, 1, 1, 100,        54,     15.82, 1, 1, 0, 1, 0, 1, 0, 1, 0, 1
 11423,  1,        54,     27.49,     27.49,     -5.99,   1.0116, 0,    64.8, 0, 1, 0, 0, 1, 1, 100,        54,      26.7, 1, 1, 0, 1, 0, 1, 0, 1, 0, 1
 11433,  1,    1205.1,    207.63,    443.48,    -98.82,   1.0524, 0, 1446.12, 0, 1, 0, 0, 1, 1, 100,    1205.1,    277.37, 1, 1, 0, 1, 0, 1, 0, 1, 0, 1
 11434,  1,    1205.1,    207.63,    443.48,    -98.82,   1.0542, 0, 1446.12, 0, 1, 0, 0, 1, 1, 100,    1205.1,    391.05, 1, 1, 0, 1, 0, 1, 0, 1, 0, 1
 11440,  1,    173.33,     17.32,     88.23,    -19.24,   0.9859, 0,     208, 0, 1, 0, 0, 1, 1, 100,    173.33,     65.27, 1, 1, 0, 1, 0, 1, 0, 1, 0, 1
 11441,  1,    173.33,     17.32,     88.23,    -19.24,   0.9847, 0,     208, 0, 1, 0, 0, 1, 1, 100,    173.33,     65.22, 1, 1, 0, 1, 0, 1, 0, 1, 0, 1
 11442,  1,    173.33,     17.32,     88.23,    -19.24,   0.9874, 0,     208, 0, 1, 0, 0, 1, 1, 100,    173.33,      80.1, 1, 1, 0, 1, 0, 1, 0, 1, 0, 1
 11443,  1,     116.4,     17.32,     59.25,    -12.92,   0.9873, 0,  139.68, 0, 1, 0, 0, 1, 1, 100,     116.4,     17.44, 1, 1, 0, 1, 0, 1, 0, 1, 0, 1
 11444,  1,     116.4,     17.32,     59.25,    -12.92,   0.9871, 0,  139.68, 0, 1, 0, 0, 1, 1, 100,     116.4,     32.21, 1, 1, 0, 1, 0, 1, 0, 1, 0, 1
 11445,  1,     116.4,     17.32,     59.25,    -12.92,   0.9867, 0,  139.68, 0, 1, 0, 0, 1, 1, 100,     116.4,     18.13, 1, 1, 0, 1, 0, 1, 0, 1, 0, 1
 11446,  1,     116.4,     17.32,     59.25,    -12.92,   0.9881, 0,  139.68, 0, 1, 0, 0, 1, 1, 100,     116.4,      45.3, 1, 1, 0, 1, 0, 1, 0, 1, 0, 1
 11447,  1,     116.4,     17.32,     59.25,    -12.92,   0.9874, 0,  139.68, 0, 1, 0, 0, 1, 1, 100,     116.4,     28.67, 1, 1, 0, 1, 0, 1, 0, 1, 0, 1
 11452,  1,         5,      1.92,      1.92,     -0.25,   1.0016, 0,       6, 0, 1, 0, 0, 1, 1, 100,         5,      1.65, 1, 1, 0, 1, 0, 1, 0, 1, 0, 1
 11453,  1,         5,      1.92,      1.92,     -0.25,   0.9999, 0,       6, 0, 1, 0, 0, 1, 1, 100,         5,      2.04, 1, 1, 0, 1, 0, 1, 0, 1, 0, 1
 11453,  2,         5,      1.92,      1.92,     -0.25,   0.9999, 0,       6, 0, 1, 0, 0, 1, 1, 100,         5,      2.16, 1, 1, 0, 1, 0, 1, 0, 1, 0, 1
 11457,  1,       1.6,      0.81,      0.81,     -0.18,   1.0138, 0,    1.92, 0, 1, 0, 0, 1, 1, 100,       1.6,      0.52, 1, 1, 0, 1, 0, 1, 0, 1, 0, 1
 11457,  2,       1.6,      0.81,      0.81,     -0.18,   1.0138, 0,    1.92, 0, 1, 0, 0, 1, 1, 100,       1.6,      0.72, 1, 1, 0, 1, 0, 1, 0, 1, 0, 1
 11459,  1,      78.8,      1.42,     30.26,     -3.86,    1.036, 0,   94.56, 0, 1, 0, 0, 1, 1, 100,      78.8,     21.14, 1, 1, 0, 1, 0, 1, 0, 1, 0, 1
 11459,  2,      78.8,      1.42,     30.26,     -3.86,    1.036, 0,   94.56, 0, 1, 0, 0, 1, 1, 100,      78.8,     33.13, 1, 1, 0, 1, 0, 1, 0, 1, 0, 1
 11467,  1,         0,         0,    124.42,    -15.88,    1.041, 0,   388.8, 0, 1, 0, 0, 1, 0, 100,       324,     38.46, 1, 1, 0, 1, 0, 1, 0, 1, 0, 1
 11468,  1,       324,     47.33,    124.42,    -15.88,   1.0485, 0,   388.8, 0, 1, 0, 0, 1, 1, 100,       324,     79.56, 1, 1, 0, 1, 0, 1, 0, 1, 0, 1
 11469,  1,       324,     47.33,    124.42,    -15.88,   1.0522, 0,   388.8, 0, 1, 0, 0, 1, 1, 100,       324,    128.82, 1, 1, 0, 1, 0, 1, 0, 1, 0, 1
 11470,  1,       324,     47.33,    124.42,    -15.88,   1.0486, 0,   388.8, 0, 1, 0, 0, 1, 1, 100,       324,     83.92, 1, 1, 0, 1, 0, 1, 0, 1, 0, 1
 11472,  1,      0.62,      0.93,      0.93,     -0.24,   1.0135, 0,     2.4, 0, 1, 0, 0, 1, 1, 100,         2,      0.62, 1, 1, 0, 1, 0, 1, 0, 1, 0, 1
 11472,  2,         0,         0,      0.93,     -0.24,   1.0135, 0,     2.4, 0, 1, 0, 0, 1, 0, 100,         2,      0.61, 1, 1, 0, 1, 0, 1, 0, 1, 0, 1
 11473,  1,         0,         0,      0.93,     -0.24,   0.9976, 0,     2.4, 0, 1, 0, 0, 1, 0, 100,         2,       0.3, 1, 1, 0, 1, 0, 1, 0, 1, 0, 1
 11473,  2,         0,         0,      0.93,     -0.24,   0.9976, 0,     2.4, 0, 1, 0, 0, 1, 0, 100,         2,      0.62, 1, 1, 0, 1, 0, 1, 0, 1, 0, 1
 11474,  1,         0,         0,      0.93,     -0.24,   0.9976, 0,     2.4, 0, 1, 0, 0, 1, 0, 100,         2,      0.62, 1, 1, 0, 1, 0, 1, 0, 1, 0, 1
 11479,  1,         1,     -0.05,      0.38,     -0.05,   1.0419, 0,     1.2, 0, 1, 0, 0, 1, 1, 100,         1,      0.27, 1, 1, 0, 1, 0, 1, 0, 1, 0, 1
 11480,  1,         0,         0,      0.38,     -0.05,    1.029, 0,     1.2, 0, 1, 0, 0, 1, 0, 100,         1,      0.19, 1, 1, 0, 1, 0, 1, 0, 1, 0, 1
 11481,  1,         1,     -0.05,      0.38,     -0.05,   1.0421, 0,     1.2, 0, 1, 0, 0, 1, 1, 100,         1,      0.22, 1, 1, 0, 1, 0, 1, 0, 1, 0, 1
 11481,  2,         1,     -0.05,      0.38,     -0.05,   1.0421, 0,     1.2, 0, 1, 0, 0, 1, 1, 100,         1,      0.25, 1, 1, 0, 1, 0, 1, 0, 1, 0, 1
 11485,  1,         5,      2.55,      2.55,     -0.55,     1.04, 0,       6, 0, 1, 0, 0, 1, 1, 100,         5,      1.95, 1, 1, 0, 1, 0, 1, 0, 1, 0, 1
 11485,  2,         5,      2.55,      2.55,     -0.55,     1.04, 0,       6, 0, 1, 0, 0, 1, 1, 100,         5,      1.07, 1, 1, 0, 1, 0, 1, 0, 1, 0, 1
 11487,  1,      1.12,      1.35,      1.35,     -0.35,    1.041, 0,    3.48, 0, 1, 0, 0, 1, 1, 100,       2.9,      1.12, 1, 1, 0, 1, 0, 1, 0, 1, 0, 1
 11491,  1,     133.2,     52.69,      67.8,    -14.79,   1.0051, 0,  159.84, 0, 1, 0, 0, 1, 1, 100,     133.2,     53.14, 1, 1, 0, 1, 0, 1, 0, 1, 0, 1
 11492,  1,     133.2,     52.69,      67.8,    -14.79,    1.007, 0,  159.84, 0, 1, 0, 0, 1, 1, 100,     133.2,     25.86, 1, 1, 0, 1, 0, 1, 0, 1, 0, 1
 11493,  1,     133.2,     52.69,      67.8,    -14.79,   1.0045, 0,  159.84, 0, 1, 0, 0, 1, 1, 100,     133.2,     21.19, 1, 1, 0, 1, 0, 1, 0, 1, 0, 1
 11494,  1,     133.2,     52.69,      67.8,    -14.79,   1.0056, 0,  159.84, 0, 1, 0, 0, 1, 1, 100,     133.2,     58.12, 1, 1, 0, 1, 0, 1, 0, 1, 0, 1
 11495,  1,     133.2,     52.69,      67.8,    -14.79,   1.0035, 0,  159.84, 0, 1, 0, 0, 1, 1, 100,     133.2,     37.14, 1, 1, 0, 1, 0, 1, 0, 1, 0, 1
 11496,  1,     133.2,     52.69,      67.8,    -14.79,   1.0047, 0,  159.84, 0, 1, 0, 0, 1, 1, 100,     133.2,     40.72, 1, 1, 0, 1, 0, 1, 0, 1, 0, 1
 11499,  1,       0.6,      0.23,      0.23,     -0.03,    1.045, 0,    0.72, 0, 1, 0, 0, 1, 1, 100,       0.6,      0.16, 1, 1, 0, 1, 0, 1, 0, 1, 0, 1
 11499,  2,       0.6,      0.23,      0.23,     -0.03,    1.045, 0,    0.72, 0, 1, 0, 0, 1, 1, 100,       0.6,      0.09, 1, 1, 0, 1, 0, 1, 0, 1, 0, 1
 14176,  1,     46.33,     23.58,     23.58,     -5.14,   1.0069, 0,    55.6, 0, 1, 0, 0, 1, 1, 100,     46.33,     20.91, 1, 1, 0, 1, 0, 1, 0, 1, 0, 1
 14177,  1,     46.33,     23.58,     23.58,     -5.14,   1.0052, 0,    55.6, 0, 1, 0, 0, 1, 1, 100,     46.33,     17.51, 1, 1, 0, 1, 0, 1, 0, 1, 0, 1
 14177,  2,     46.33,     23.58,     23.58,     -5.14,   1.0052, 0,    55.6, 0, 1, 0, 0, 1, 1, 100,     46.33,     15.03, 1, 1, 0, 1, 0, 1, 0, 1, 0, 1
 14179,  1,      14.4,      7.33,      7.33,      -1.6,   1.0425, 0,   17.28, 0, 1, 0, 0, 1, 1, 100,      14.4,       3.8, 1, 1, 0, 1, 0, 1, 0, 1, 0, 1
...